<edges>
    <edge id="north2center" from="north" to="center"/>
    <edge id="center2south" from="center" to="south"/>
    
    <edge id="south2center" from="south" to="center"/>
    <edge id="center2north" from="center" to="north"/>
    
    <edge id="west2center" from="west" to="center"/>
    <edge id="center2east" from="center" to="east"/>
    
    <edge id="east2center" from="east" to="center"/>
    <edge id="center2west" from="center" to="west"/>
</edges>
