<nodes>
    <node id="north" x="200" y="400"/>
    <node id="south" x="200" y="0"/>
    <node id="west"  x="0"  y="200"/>
    <node id="east"  x="400" y="200"/>
    <node id="center" x="200" y="200" type="traffic_light"/>
</nodes>
