<nodes>
    <node id="north" x="50" y="100"/>
    <node id="south" x="50" y="0"/>
    <node id="west"  x="0"  y="50"/>
    <node id="east"  x="100" y="50"/>
    <node id="center" x="50" y="50" type="traffic_light"/>
</nodes>
