<routes>
    <vType id="car" accel="1.0" decel="4.5" maxSpeed="13.9" length="5"/>

    <route id="north2south" edges="north2center center2south"/>
    <route id="south2north" edges="south2center center2north"/>
    <route id="west2east" edges="west2center center2east"/>
    <route id="east2west" edges="east2center center2west"/>

    <flow id="flow_n2s" type="car" route="north2south" begin="0" end="600" vehsPerHour="600"/>
    <flow id="flow_s2n" type="car" route="south2north" begin="0" end="600" vehsPerHour="600"/>
    <flow id="flow_w2e" type="car" route="west2east" begin="0" end="600" vehsPerHour="600"/>
    <flow id="flow_e2w" type="car" route="east2west" begin="0" end="600" vehsPerHour="600"/>
</routes>
