<additional>
    <tlLogic id="center" type="static" programID="myProgram" offset="0">
        <!-- Verde Nord-Sud -->
        <phase duration="30" state="GrGr"/>
        <!-- Giallo Nord-Sud -->
        <phase duration="3" state="yryr"/>
        <!-- Verde Est-Ovest -->
        <phase duration="30" state="rGrG"/>
        <!-- Giallo Est-Ovest -->
        <phase duration="3" state="ryry"/>
    </tlLogic>
</additional>
